@<TRIPOS>MOLECULE
*****
    9     8     0     0     0
SMALL
USER_CHARGES

@<TRIPOS>ATOM
      1 C1          0.0000    0.0000    0.0000 C.3       1 <0>        -0.0971
      2 C2          0.0000    0.0000    0.0000 C.3       1 <0>         0.1314
      3 O1          0.0000    0.0000    0.0000 O.3       1 <0>        -0.6013
      4 H1          0.0000    0.0000    0.0000 H         1 <0>         0.0448
      5 H2          0.0000    0.0000    0.0000 H         1 <0>         0.0448
      6 H3          0.0000    0.0000    0.0000 H         1 <0>         0.0448
      7 H4          0.0000    0.0000    0.0000 H         1 <0>         0.0173
      8 H5          0.0000    0.0000    0.0000 H         1 <0>         0.0173
      9 H6          0.0000    0.0000    0.0000 H         1 <0>         0.3981
@<TRIPOS>BOND
     1    1    2 1
     2    2    3 1
     3    1    4 1
     4    1    5 1
     5    1    6 1
     6    2    7 1
     7    2    8 1
     8    3    9 1
